powerflow/autotest/test_regulator_remotesense_YY_A_NR_ts_fix.glm
// $id$
//	Copyright (C) 2008 Battelle Memorial Institute

// 4 node system with a balanced load and a regulator
// being controlled under REMOTE_SENSE mode, each phase
// individually controlled.  Check to make sure voltages are being
// regulated correctly with both a Type A & B regulator.
// Somewhat contrived test, as a 200000 ft overhead line is used
// to artificially lower the voltage at the regulator, but tests
// the regulator function.  This test will look at a time series.


clock {
	timezone EST+5EDT;
	starttime '2000-01-01 0:00:00';
	stoptime '2000-01-01 4:00:00';
}

module powerflow {
	solver_method NR;
};
module assert;
module tape;

//#define savefile="test_reg_NR.xml";
//#define stylesheet="C:\Documents and Settings\d3x289\Desktop\GLD_8_7\trunk\VS2005\gridlabd-2_0";
#set relax_naming_rules=1

object overhead_line_conductor:100 {
	geometric_mean_radius 0.0244;
	resistance 0.306;
}

object overhead_line_conductor:101 {
	geometric_mean_radius 0.00814;
	resistance 0.592;
}

object line_spacing:200 {
	distance_AB 2.5;
	distance_BC 4.5;
	distance_AC 7.0;
	distance_AN 5.656854;
	distance_BN 4.272002;
	distance_CN 5.0;
}

object line_configuration:300 {
	conductor_A overhead_line_conductor:100;
	conductor_B overhead_line_conductor:100;
	conductor_C overhead_line_conductor:100;
	conductor_N overhead_line_conductor:101;
	spacing line_spacing:200;
}

object regulator_configuration {
	connect_type WYE_WYE;
	name auto_regulator;
	raise_taps 16;
	lower_taps 16;
	regulation 0.1;
	Type A;
	Control REMOTE_NODE;
	band_center 7200;
	band_width 90; // approximately one tap difference
	
}

object node {
	phases ABCN;
	name FeederNode;
	bustype SWING;
	voltage_A +7199.558+0.000j;
	voltage_B -3599.779-6235.000j;
	voltage_C -3599.779+6235.000j;
	nominal_voltage 7200;
}

object overhead_line {
	phases "ABCN";
	from FeederNode;
	to InterNode;
	length 200000;
	configuration line_configuration:300;
}

object node {
	phases ABCN;
	name InterNode;
	voltage_A +7199.558+0.000j;
	voltage_B -3599.779-6235.000j;
	voltage_C -3599.779+6235.000j;
	nominal_voltage 7200;
}
	
object regulator {
	name Regulator;
	phases ABCN;
	from InterNode;
	to TopNode;
	configuration auto_regulator;
	sense_node BottomLoad;
}

object node {
	phases "ABCN";
	name TopNode;
	voltage_A +7199.558+0.000j;
	voltage_B -3599.779-6235.000j;
	voltage_C -3599.779+6235.000j;
	nominal_voltage 7200;
}

object overhead_line {
	phases "ABCN";
	from TopNode;
	to MiddleNode;
	length 2000;
	configuration line_configuration:300;
}

object node {
	phases "ABCN";
	nominal_voltage 7200;
	voltage_A +7199.558+0.000j;
	voltage_B -3599.779-6235.000j;
	voltage_C -3599.779+6235.000j;
	name MiddleNode;
}

object overhead_line {
	phases "ABCN";
	from MiddleNode;
	to BottomLoad;
	length 2500;
	configuration line_configuration:300;
}

object load {
	phases "ABCN";
	name BottomLoad;
	nominal_voltage 7200;
	
	object player {
	  parent "BottomLoad";
		file ../regulator_load_phA.player;
		loop 6;
		property constant_power_A;
	};
	object player {
	  parent "BottomLoad";
		file ../regulator_load_phB.player;
		loop 6;
		property constant_power_B;
	};
	object player {
	  parent "BottomLoad";
		file ../regulator_load_phC.player;
		loop 6;
		property constant_power_C;
	};

	object complex_assert {
	  parent "BottomLoad";
	  name "BottomLoad_complex_assert_0";
		operation MAGNITUDE;
		target voltage_A;
		within 0.1;
		object player {
		  parent "BottomLoad_complex_assert_0";
			property value;
			file ../data_reg_remote_YY_A_NR_phase_A.csv;
		};
	};
	object complex_assert {
	  parent "BottomLoad";
	  name "BottomLoad_complex_assert_1";
		operation MAGNITUDE;
		target voltage_B;
		within 0.1;
		object player {
		  parent "BottomLoad_complex_assert_1";
			property value;
			file ../data_reg_remote_YY_A_NR_phase_B.csv;
		};
	};
	object complex_assert {
	  parent "BottomLoad";
	  name "BottomLoad_complex_assert_2";
		operation MAGNITUDE;
		target voltage_C;
		within 0.1;
		object player {
		  parent "BottomLoad_complex_assert_2";
			property value;
			file ../data_reg_remote_YY_A_NR_phase_C.csv;
		};
	};
}

object recorder {
  name "global_recorder_0";
	file test.csv;
	interval 3600;
	limit 24;
	parent Regulator;
	property tap_A,tap_B,tap_C;
}